omegapdb_1sn5
 OpenBabel08201800433D

 35 36  0  0  1  0  0  0  0  0999 V2000
   -0.6595    1.1960   -0.1245 C   0  0  0  0  0  0  0  0  0  0  0  0
    0.7350    1.1857   -0.2431 C   0  0  0  0  0  0  0  0  0  0  0  0
    1.4499   -0.0210   -0.2519 C   0  0  0  0  0  0  0  0  0  0  0  0
    0.7967   -1.2316    0.0336 C   0  0  0  0  0  0  0  0  0  0  0  0
   -0.5985   -1.2190    0.1866 C   0  0  0  0  0  0  0  0  0  0  0  0
   -1.3212   -0.0234    0.0728 C   0  0  0  0  0  0  0  0  0  0  0  0
   -1.6868   -2.9559    0.6444 I   0  0  0  0  0  0  0  0  0  0  0  0
    1.4354   -2.4490    0.1078 O   0  0  0  0  0  0  0  0  0  0  0  0
    1.9472   -2.8656    1.3196 C   0  0  0  0  0  0  0  0  0  0  0  0
    1.8966   -2.1226    2.5042 C   0  0  0  0  0  0  0  0  0  0  0  0
    2.6139   -2.5582    3.6202 C   0  0  0  0  0  0  0  0  0  0  0  0
    3.2925   -3.7779    3.5822 C   0  0  0  0  0  0  0  0  0  0  0  0
    3.2699   -4.5605    2.4321 C   0  0  0  0  0  0  0  0  0  0  0  0
    2.6025   -4.1005    1.2969 C   0  0  0  0  0  0  0  0  0  0  0  0
    4.0115   -4.2575    4.6403 O   0  0  0  0  0  0  0  0  0  0  0  0
    2.7351   -1.2986    5.2804 I   0  0  0  0  0  0  0  0  0  0  0  0
    3.4778    0.1439   -0.8111 I   0  0  0  0  0  0  0  0  0  0  0  0
   -1.4534    2.4846   -0.1203 C   0  0  0  0  0  0  0  0  0  0  0  0
   -2.2733    2.7949   -1.3870 C   0  0  1  0  0  0  0  0  0  0  0  0
   -3.7343    2.3260   -1.2605 C   0  0  0  0  0  0  0  0  0  0  0  0
   -4.1786    1.7710   -0.2598 O   0  0  0  0  0  0  0  0  0  0  0  0
   -4.5179    2.6057   -2.3223 O   0  0  0  0  0  0  0  0  0  0  0  0
   -2.2489    4.2674   -1.5996 N   0  0  0  0  0  0  0  0  0  0  0  0
    1.2791    2.1232   -0.3410 H   0  0  0  0  0  0  0  0  0  0  0  0
   -2.4073   -0.0360    0.1638 H   0  0  0  0  0  0  0  0  0  0  0  0
    1.3589   -1.1806    2.5431 H   0  0  0  0  0  0  0  0  0  0  0  0
    3.7990   -5.5092    2.4087 H   0  0  0  0  0  0  0  0  0  0  0  0
    2.6241   -4.6891    0.3829 H   0  0  0  0  0  0  0  0  0  0  0  0
    3.9290   -3.6126    5.3654 H   0  0  0  0  0  0  0  0  0  0  0  0
   -0.7331    3.2895    0.0571 H   0  0  0  0  0  0  0  0  0  0  0  0
   -2.1377    2.4798    0.7418 H   0  0  0  0  0  0  0  0  0  0  0  0
   -1.8401    2.3458   -2.2861 H   0  0  0  0  0  0  0  0  0  0  0  0
   -4.0874    3.0521   -3.0717 H   0  0  0  0  0  0  0  0  0  0  0  0
   -2.8235    4.6949   -0.8636 H   0  0  0  0  0  0  0  0  0  0  0  0
   -2.7790    4.4763   -2.4492 H   0  0  0  0  0  0  0  0  0  0  0  0
  1  2  1  0  0  0  0
  1  6  2  0  0  0  0
  1 18  1  0  0  0  0
  2  3  2  0  0  0  0
  2 24  1  0  0  0  0
  3  4  1  0  0  0  0
  3 17  1  0  0  0  0
  4  5  2  0  0  0  0
  4  8  1  0  0  0  0
  5  6  1  0  0  0  0
  5  7  1  0  0  0  0
  6 25  1  0  0  0  0
  8  9  1  0  0  0  0
  9 10  1  0  0  0  0
  9 14  2  0  0  0  0
 10 11  2  0  0  0  0
 10 26  1  0  0  0  0
 11 12  1  0  0  0  0
 11 16  1  0  0  0  0
 12 13  2  0  0  0  0
 12 15  1  0  0  0  0
 13 14  1  0  0  0  0
 13 27  1  0  0  0  0
 14 28  1  0  0  0  0
 15 29  1  0  0  0  0
 18 19  1  0  0  0  0
 18 30  1  0  0  0  0
 18 31  1  0  0  0  0
 19 20  1  0  0  0  0
 19 23  1  0  0  0  0
 19 32  1  6  0  0  0
 20 21  2  0  0  0  0
 20 22  1  0  0  0  0
 22 33  1  0  0  0  0
 23 34  1  0  0  0  0
 23 35  1  0  0  0  0
M  END
$$$$
